Circuit: * C:\Users\hp\Desktop\generator\Draft1.asc

WARNING: Specified period is not longer than the sum of Trise, Tfall, and Ton for v3.  Increasing period to 7
WARNING: Specified period is not longer than the sum of Trise, Tfall, and Ton for v2.  Increasing period to 0.005
Unknown node in .ic card: "c1" -- ignoring
Direct Newton iteration for .op point succeeded.

Date: Tue Jan 14 10:16:15 2020
Total elapsed time: 99.546 seconds.

tnom = 27
temp = 27
method = modified trap
totiter = 18318439
traniter = 18318420
tranpoints = 5219917
accept = 3605244
rejected = 1614673
matrix size = 33
fillins = 22
solver = Normal
Matrix Compiler1: 2.12 KB object code size  0.4/0.2/[0.1]
Matrix Compiler2: 2.80 KB object code size  0.2/0.3/[0.2]

